Version 4
SHEET 1 880 680
WIRE -16 -48 -112 -48
WIRE 16 -48 16 -112
WIRE 16 -48 -16 -48
WIRE 96 -48 16 -48
WIRE 192 -48 96 -48
WIRE 288 -48 192 -48
WIRE 288 0 288 -48
WIRE -112 32 -112 -48
WIRE 240 32 16 32
WIRE 416 32 336 32
WIRE -320 48 -352 48
WIRE -160 64 -224 64
WIRE 16 64 16 32
WIRE 16 64 -64 64
WIRE -160 80 -208 80
WIRE 96 80 96 -48
WIRE -16 112 -16 -48
WIRE -16 112 -96 112
WIRE 48 112 16 112
WIRE 240 112 240 48
WIRE 240 112 144 112
WIRE -320 144 -320 48
WIRE 48 144 48 128
WIRE 48 144 -320 144
WIRE -320 176 -352 176
WIRE 192 176 192 -48
WIRE -96 192 -96 112
WIRE 48 208 48 144
WIRE 112 208 48 208
WIRE -320 224 -320 176
WIRE -224 224 -224 64
WIRE -224 224 -320 224
WIRE -176 224 -224 224
WIRE 416 224 240 224
WIRE 16 240 16 112
WIRE 16 240 -48 240
WIRE 112 240 16 240
WIRE 128 240 112 240
WIRE -208 256 -208 80
WIRE -208 256 -320 256
WIRE -176 256 -208 256
WIRE -320 288 -320 256
WIRE -320 288 -352 288
FLAG 416 224 Sum
IOPIN 416 224 Out
FLAG 416 32 Cout
IOPIN 416 32 Out
FLAG -352 48 Cin
IOPIN -352 48 In
FLAG -352 176 A
IOPIN -352 176 In
FLAG -352 288 B
IOPIN -352 288 In
FLAG 16 -112 Vdd
IOPIN 16 -112 In
SYMBOL NAND -64 112 R0
SYMATTR InstName X1
SYMBOL NAND 144 160 R0
SYMATTR InstName X2
SYMBOL NAND 336 80 R0
SYMATTR InstName X3
SYMBOL XOR -80 272 R0
SYMATTR InstName X4
SYMBOL XOR 208 256 R0
SYMATTR InstName X5
