Version 4
SHEET 1 1320 692
WIRE 64 16 48 16
WIRE 384 16 144 16
WIRE 784 32 560 32
WIRE 384 64 384 16
WIRE 560 64 560 32
WIRE 384 80 272 80
WIRE 832 80 560 80
WIRE 272 96 272 80
WIRE 272 96 -96 96
WIRE 384 96 304 96
WIRE 704 96 560 96
WIRE 304 112 304 96
WIRE 304 112 96 112
WIRE 384 112 320 112
WIRE 320 128 320 112
WIRE 320 128 144 128
WIRE 560 128 560 112
WIRE 736 128 560 128
WIRE 384 144 256 144
WIRE 384 160 288 160
WIRE 144 176 144 128
WIRE 384 176 320 176
WIRE 560 176 560 144
WIRE 672 176 560 176
WIRE 384 224 384 192
WIRE 944 224 384 224
WIRE 320 256 320 176
WIRE 480 256 320 256
WIRE 288 272 288 160
WIRE 368 272 288 272
WIRE 256 288 256 144
WIRE 480 464 480 256
WIRE 368 544 368 272
WIRE 96 592 96 112
FLAG 144 256 0
FLAG 96 672 0
FLAG -176 96 0
FLAG 48 16 0
FLAG 368 624 0
FLAG 480 544 0
FLAG 944 304 0
FLAG 256 368 0
FLAG 464 -48 0
FLAG 784 32 S0
IOPIN 784 32 Out
FLAG 832 80 S1
IOPIN 832 80 Out
FLAG 704 96 S2
IOPIN 704 96 Out
FLAG 736 128 S3
IOPIN 736 128 Out
FLAG 672 176 Cout
IOPIN 672 176 Out
SYMBOL RippleAdder 464 112 R0
SYMATTR InstName X1
SYMBOL voltage 160 16 R90
WINDOW 0 -32 56 VBottom 2
WINDOW 3 32 56 VTop 2
WINDOW 123 0 0 Left 0
WINDOW 39 0 0 Left 0
SYMATTR InstName A1
SYMATTR Value 2.5
SYMBOL voltage -80 96 R90
WINDOW 0 -32 56 VBottom 2
WINDOW 3 32 56 VTop 2
WINDOW 123 0 0 Left 0
WINDOW 39 0 0 Left 0
SYMATTR InstName A2
SYMATTR Value 0
SYMBOL voltage 144 160 R0
WINDOW 3 -7 64 Left 2
WINDOW 123 0 0 Left 0
WINDOW 39 0 0 Left 0
SYMATTR Value 2.5
SYMATTR InstName A3
SYMBOL voltage 96 576 R0
WINDOW 123 0 0 Left 0
WINDOW 39 0 0 Left 0
SYMATTR InstName A4
SYMATTR Value 2.5
SYMBOL voltage 256 272 R0
WINDOW 123 0 0 Left 0
WINDOW 39 0 0 Left 0
SYMATTR InstName B0
SYMATTR Value 0
SYMBOL voltage 368 528 R0
WINDOW 123 0 0 Left 0
WINDOW 39 0 0 Left 0
SYMATTR InstName B1
SYMATTR Value 2.5
SYMBOL voltage 480 448 R0
WINDOW 123 0 0 Left 0
WINDOW 39 0 0 Left 0
SYMATTR InstName B2
SYMATTR Value 0
SYMBOL voltage 944 208 R0
WINDOW 123 0 0 Left 0
WINDOW 39 0 0 Left 0
SYMATTR InstName B3
SYMATTR Value 2.5
SYMBOL voltage 464 48 R180
WINDOW 0 24 96 Left 2
WINDOW 3 24 16 Left 2
WINDOW 123 0 0 Left 0
WINDOW 39 0 0 Left 0
SYMATTR InstName Vdd1
SYMATTR Value 2.5
TEXT -72 408 Left 2 !.tran 500m
