Version 4
SHEET 1 880 680
WIRE 32 -32 -192 -32
WIRE 128 -32 32 -32
WIRE 256 -32 128 -32
WIRE 480 -32 256 -32
WIRE -240 112 -240 48
WIRE -224 112 -224 48
WIRE -192 112 -192 -32
WIRE -16 112 -16 48
WIRE 0 112 0 48
WIRE 32 112 32 -32
WIRE 208 112 208 48
WIRE 224 112 224 48
WIRE 256 112 256 -32
WIRE 432 112 432 48
WIRE 448 112 448 48
WIRE 480 112 480 -32
WIRE -288 160 -352 160
WIRE -64 160 -160 160
WIRE 160 160 64 160
WIRE 384 160 288 160
WIRE 592 160 512 160
WIRE -224 256 -224 208
WIRE 0 256 0 208
WIRE 224 256 224 208
WIRE 448 256 448 208
FLAG 592 160 0
FLAG 432 48 A0
IOPIN 432 48 In
FLAG 448 48 B0
IOPIN 448 48 In
FLAG 208 48 A1
IOPIN 208 48 In
FLAG 224 48 B1
IOPIN 224 48 In
FLAG 0 48 B2
IOPIN 0 48 In
FLAG -224 48 B3
IOPIN -224 48 In
FLAG -240 48 A3
IOPIN -240 48 In
FLAG -16 48 A2
IOPIN -16 48 In
FLAG 128 -32 Vdd
IOPIN 128 -32 In
FLAG -224 256 S3
IOPIN -224 256 Out
FLAG 0 256 S2
IOPIN 0 256 Out
FLAG 224 256 S1
IOPIN 224 256 Out
FLAG 448 256 S0
IOPIN 448 256 Out
FLAG -352 160 Cout
IOPIN -352 160 Out
SYMBOL FA 464 176 R0
SYMATTR InstName X1
SYMBOL FA 240 176 R0
SYMATTR InstName X2
SYMBOL FA 16 176 R0
SYMATTR InstName X3
SYMBOL FA -208 176 R0
SYMATTR InstName X4
