Version 4
SHEET 1 1164 680
WIRE -112 -32 -128 -32
WIRE 208 -32 -32 -32
WIRE 608 -16 384 -16
WIRE 208 16 208 -32
WIRE 384 16 384 -16
WIRE 208 32 96 32
WIRE 656 32 384 32
WIRE 96 48 96 32
WIRE 96 48 -272 48
WIRE 208 48 128 48
WIRE 528 48 384 48
WIRE 128 64 128 48
WIRE 128 64 -80 64
WIRE 208 64 144 64
WIRE 144 80 144 64
WIRE 144 80 -32 80
WIRE 384 80 384 64
WIRE 560 80 384 80
WIRE 208 96 80 96
WIRE 208 112 112 112
WIRE -32 128 -32 80
WIRE 208 128 144 128
WIRE 384 128 384 96
WIRE 496 128 384 128
WIRE 208 176 208 144
WIRE 768 176 208 176
WIRE 144 208 144 128
WIRE 304 208 144 208
WIRE 112 224 112 112
WIRE 192 224 112 224
WIRE 80 240 80 96
WIRE 304 416 304 208
WIRE 192 496 192 224
WIRE -80 544 -80 64
FLAG -32 208 0
FLAG -80 624 0
FLAG -352 48 0
FLAG -128 -32 0
FLAG 192 576 0
FLAG 304 496 0
FLAG 768 256 0
FLAG 80 320 0
FLAG 288 -96 0
FLAG 608 -16 S0
IOPIN 608 -16 Out
FLAG 656 32 S1
IOPIN 656 32 Out
FLAG 528 48 S2
IOPIN 528 48 Out
FLAG 560 80 S3
IOPIN 560 80 Out
FLAG 496 128 Cout
IOPIN 496 128 Out
SYMBOL RippleAdder 288 64 R0
SYMATTR InstName X1
SYMBOL voltage -16 -32 R90
WINDOW 0 -32 56 VBottom 2
WINDOW 3 32 56 VTop 2
WINDOW 123 0 0 Left 0
WINDOW 39 0 0 Left 0
SYMATTR InstName A0
SYMATTR Value PULSE(0 2.5 16m 1n 1n 16m 32m)
SYMBOL voltage -256 48 R90
WINDOW 0 -32 56 VBottom 2
WINDOW 3 32 56 VTop 2
WINDOW 123 0 0 Left 0
WINDOW 39 0 0 Left 0
SYMATTR InstName A1
SYMATTR Value PULSE(0 2.5 32m 1n 1n 32m 64m)
SYMBOL voltage -32 112 R0
WINDOW 3 -7 64 Left 2
WINDOW 123 0 0 Left 0
WINDOW 39 0 0 Left 0
SYMATTR Value PULSE(0 2.5 128m 1n 1n 128m 256m)
SYMATTR InstName A3
SYMBOL voltage -80 528 R0
WINDOW 123 0 0 Left 0
WINDOW 39 0 0 Left 0
SYMATTR InstName A2
SYMATTR Value PULSE(0 2.5 64m 1n 1n 64m 128m)
SYMBOL voltage 80 224 R0
WINDOW 123 0 0 Left 0
WINDOW 39 0 0 Left 0
SYMATTR InstName B0
SYMATTR Value PULSE(0 0 1m 1n 1n 1m 2m)
SYMBOL voltage 192 480 R0
WINDOW 123 0 0 Left 0
WINDOW 39 0 0 Left 0
SYMATTR InstName B1
SYMATTR Value PULSE(0 0 2m 1n 1n 2m 4m)
SYMBOL voltage 304 400 R0
WINDOW 123 0 0 Left 0
WINDOW 39 0 0 Left 0
SYMATTR InstName B2
SYMATTR Value PULSE(0 0 4m 1n 1n 4m 8m)
SYMBOL voltage 768 160 R0
WINDOW 123 0 0 Left 0
WINDOW 39 0 0 Left 0
SYMATTR InstName B3
SYMATTR Value PULSE(0 0 8m 1n 1n 8m 16m)
SYMBOL voltage 288 0 R180
WINDOW 0 24 96 Left 2
WINDOW 3 24 16 Left 2
WINDOW 123 0 0 Left 0
WINDOW 39 0 0 Left 0
SYMATTR InstName Vdd
SYMATTR Value 2.5
TEXT -248 360 Left 2 !.tran 500m
